
---------- Begin Simulation Statistics ----------
sim_seconds                                  0.518359                       # Number of seconds simulated
sim_ticks                                518358564000                       # Number of ticks simulated
final_tick                               518358564000                       # Number of ticks from beginning of simulation (restored from checkpoints and never reset)
sim_freq                                 1000000000000                       # Frequency of simulated ticks
host_inst_rate                                1584278                       # Simulator instruction rate (inst/s)
host_op_rate                                  2555290                       # Simulator op (including micro ops) rate (op/s)
host_tick_rate                             3241197626                       # Simulator tick rate (ticks/s)
host_mem_usage                                 680404                       # Number of bytes of host memory used
host_seconds                                   159.93                       # Real time elapsed on the host
sim_insts                                   253370613                       # Number of instructions simulated
sim_ops                                     408662670                       # Number of ops (including micro ops) simulated
system.voltage_domain.voltage                       1                       # Voltage in Volts
system.clk_domain.clock                          1000                       # Clock period in ticks
system.mem_ctrls.pwrStateResidencyTicks::UNDEFINED 518358564000                       # Cumulative time (in ticks) in various power states
system.mem_ctrls.bytes_read::cpu.inst           48384                       # Number of bytes read from this memory
system.mem_ctrls.bytes_read::cpu.data         5657600                       # Number of bytes read from this memory
system.mem_ctrls.bytes_read::total            5705984                       # Number of bytes read from this memory
system.mem_ctrls.bytes_inst_read::cpu.inst        48384                       # Number of instructions bytes read from this memory
system.mem_ctrls.bytes_inst_read::total         48384                       # Number of instructions bytes read from this memory
system.mem_ctrls.bytes_written::writebacks      4575808                       # Number of bytes written to this memory
system.mem_ctrls.bytes_written::total         4575808                       # Number of bytes written to this memory
system.mem_ctrls.num_reads::cpu.inst              756                       # Number of read requests responded to by this memory
system.mem_ctrls.num_reads::cpu.data            88400                       # Number of read requests responded to by this memory
system.mem_ctrls.num_reads::total               89156                       # Number of read requests responded to by this memory
system.mem_ctrls.num_writes::writebacks         71497                       # Number of write requests responded to by this memory
system.mem_ctrls.num_writes::total              71497                       # Number of write requests responded to by this memory
system.mem_ctrls.bw_read::cpu.inst              93341                       # Total read bandwidth from this memory (bytes/s)
system.mem_ctrls.bw_read::cpu.data           10914453                       # Total read bandwidth from this memory (bytes/s)
system.mem_ctrls.bw_read::total              11007793                       # Total read bandwidth from this memory (bytes/s)
system.mem_ctrls.bw_inst_read::cpu.inst         93341                       # Instruction read bandwidth from this memory (bytes/s)
system.mem_ctrls.bw_inst_read::total            93341                       # Instruction read bandwidth from this memory (bytes/s)
system.mem_ctrls.bw_write::writebacks         8827496                       # Write bandwidth from this memory (bytes/s)
system.mem_ctrls.bw_write::total              8827496                       # Write bandwidth from this memory (bytes/s)
system.mem_ctrls.bw_total::writebacks         8827496                       # Total bandwidth to/from this memory (bytes/s)
system.mem_ctrls.bw_total::cpu.inst             93341                       # Total bandwidth to/from this memory (bytes/s)
system.mem_ctrls.bw_total::cpu.data          10914453                       # Total bandwidth to/from this memory (bytes/s)
system.mem_ctrls.bw_total::total             19835289                       # Total bandwidth to/from this memory (bytes/s)
system.pwrStateResidencyTicks::UNDEFINED 518358564000                       # Cumulative time (in ticks) in various power states
system.cpu_voltage_domain.voltage                   1                       # Voltage in Volts
system.cpu_clk_domain.clock                       500                       # Clock period in ticks
system.cpu.dtb.walker.pwrStateResidencyTicks::UNDEFINED 518358564000                       # Cumulative time (in ticks) in various power states
system.cpu.dtb.rdAccesses                   116102318                       # TLB accesses on read requests
system.cpu.dtb.wrAccesses                    28829611                       # TLB accesses on write requests
system.cpu.dtb.rdMisses                          2237                       # TLB misses on read requests
system.cpu.dtb.wrMisses                           501                       # TLB misses on write requests
system.cpu.apic_clk_domain.clock                 8000                       # Clock period in ticks
system.cpu.interrupts.pwrStateResidencyTicks::UNDEFINED 518358564000                       # Cumulative time (in ticks) in various power states
system.cpu.itb.walker.pwrStateResidencyTicks::UNDEFINED 518358564000                       # Cumulative time (in ticks) in various power states
system.cpu.itb.rdAccesses                           0                       # TLB accesses on read requests
system.cpu.itb.wrAccesses                   333920997                       # TLB accesses on write requests
system.cpu.itb.rdMisses                             0                       # TLB misses on read requests
system.cpu.itb.wrMisses                            80                       # TLB misses on write requests
system.cpu.workload.numSyscalls                     9                       # Number of system calls
system.cpu.pwrStateResidencyTicks::ON    518358564000                       # Cumulative time (in ticks) in various power states
system.cpu.numCycles                       1036717128                       # number of cpu cycles simulated
system.cpu.numWorkItemsStarted                      0                       # number of work items this cpu started
system.cpu.numWorkItemsCompleted                    0                       # number of work items this cpu completed
system.cpu.committedInsts                   253370613                       # Number of instructions committed
system.cpu.committedOps                     408662670                       # Number of ops (including micro ops) committed
system.cpu.num_int_alu_accesses             408228963                       # Number of integer alu accesses
system.cpu.num_fp_alu_accesses                   3053                       # Number of float alu accesses
system.cpu.num_vec_alu_accesses                     0                       # Number of vector alu accesses
system.cpu.num_func_calls                     3865060                       # number of times a function call or return occured
system.cpu.num_conditional_control_insts     24239469                       # number of instructions that are conditional controls
system.cpu.num_int_insts                    408228963                       # number of integer instructions
system.cpu.num_fp_insts                          3053                       # number of float instructions
system.cpu.num_vec_insts                            0                       # number of vector instructions
system.cpu.num_int_register_reads           878279950                       # number of times the integer registers were read
system.cpu.num_int_register_writes          341969130                       # number of times the integer registers were written
system.cpu.num_fp_register_reads                 5623                       # number of times the floating registers were read
system.cpu.num_fp_register_writes                2410                       # number of times the floating registers were written
system.cpu.num_vec_register_reads                   0                       # number of times the vector registers were read
system.cpu.num_vec_register_writes                  0                       # number of times the vector registers were written
system.cpu.num_cc_register_reads            132076380                       # number of times the CC registers were read
system.cpu.num_cc_register_writes           138073945                       # number of times the CC registers were written
system.cpu.num_mem_refs                     144931915                       # number of memory refs
system.cpu.num_load_insts                   116102304                       # Number of load instructions
system.cpu.num_store_insts                   28829611                       # Number of store instructions
system.cpu.num_idle_cycles                          0                       # Number of idle cycles
system.cpu.num_busy_cycles                 1036717128                       # Number of busy cycles
system.cpu.not_idle_fraction                        1                       # Percentage of non-idle cycles
system.cpu.idle_fraction                            0                       # Percentage of idle cycles
system.cpu.Branches                          38430352                       # Number of branches fetched
system.cpu.op_class::No_OpClass                   357      0.00%      0.00% # Class of executed instruction
system.cpu.op_class::IntAlu                 262728402     64.29%     64.29% # Class of executed instruction
system.cpu.op_class::IntMult                  1000124      0.24%     64.53% # Class of executed instruction
system.cpu.op_class::IntDiv                        14      0.00%     64.53% # Class of executed instruction
system.cpu.op_class::FloatAdd                      10      0.00%     64.53% # Class of executed instruction
system.cpu.op_class::FloatCmp                       0      0.00%     64.53% # Class of executed instruction
system.cpu.op_class::FloatCvt                       0      0.00%     64.53% # Class of executed instruction
system.cpu.op_class::FloatMult                      0      0.00%     64.53% # Class of executed instruction
system.cpu.op_class::FloatMultAcc                   0      0.00%     64.53% # Class of executed instruction
system.cpu.op_class::FloatDiv                       0      0.00%     64.53% # Class of executed instruction
system.cpu.op_class::FloatMisc                      0      0.00%     64.53% # Class of executed instruction
system.cpu.op_class::FloatSqrt                      0      0.00%     64.53% # Class of executed instruction
system.cpu.op_class::SimdAdd                      390      0.00%     64.53% # Class of executed instruction
system.cpu.op_class::SimdAddAcc                     0      0.00%     64.53% # Class of executed instruction
system.cpu.op_class::SimdAlu                      630      0.00%     64.53% # Class of executed instruction
system.cpu.op_class::SimdCmp                        0      0.00%     64.53% # Class of executed instruction
system.cpu.op_class::SimdCvt                      276      0.00%     64.53% # Class of executed instruction
system.cpu.op_class::SimdMisc                     366      0.00%     64.54% # Class of executed instruction
system.cpu.op_class::SimdMult                       0      0.00%     64.54% # Class of executed instruction
system.cpu.op_class::SimdMultAcc                    0      0.00%     64.54% # Class of executed instruction
system.cpu.op_class::SimdShift                    186      0.00%     64.54% # Class of executed instruction
system.cpu.op_class::SimdShiftAcc                   0      0.00%     64.54% # Class of executed instruction
system.cpu.op_class::SimdSqrt                       0      0.00%     64.54% # Class of executed instruction
system.cpu.op_class::SimdFloatAdd                   0      0.00%     64.54% # Class of executed instruction
system.cpu.op_class::SimdFloatAlu                   0      0.00%     64.54% # Class of executed instruction
system.cpu.op_class::SimdFloatCmp                   0      0.00%     64.54% # Class of executed instruction
system.cpu.op_class::SimdFloatCvt                   0      0.00%     64.54% # Class of executed instruction
system.cpu.op_class::SimdFloatDiv                   0      0.00%     64.54% # Class of executed instruction
system.cpu.op_class::SimdFloatMisc                  0      0.00%     64.54% # Class of executed instruction
system.cpu.op_class::SimdFloatMult                  0      0.00%     64.54% # Class of executed instruction
system.cpu.op_class::SimdFloatMultAcc               0      0.00%     64.54% # Class of executed instruction
system.cpu.op_class::SimdFloatSqrt                  0      0.00%     64.54% # Class of executed instruction
system.cpu.op_class::MemRead                116102064     28.41%     92.95% # Class of executed instruction
system.cpu.op_class::MemWrite                28829168      7.05%    100.00% # Class of executed instruction
system.cpu.op_class::FloatMemRead                 240      0.00%    100.00% # Class of executed instruction
system.cpu.op_class::FloatMemWrite                443      0.00%    100.00% # Class of executed instruction
system.cpu.op_class::IprAccess                      0      0.00%    100.00% # Class of executed instruction
system.cpu.op_class::InstPrefetch                   0      0.00%    100.00% # Class of executed instruction
system.cpu.op_class::total                  408662670                       # Class of executed instruction
system.cpu.dcache.tags.pwrStateResidencyTicks::UNDEFINED 518358564000                       # Cumulative time (in ticks) in various power states
system.cpu.dcache.tags.tagsinuse           511.654630                       # Cycle average of tags in use
system.cpu.dcache.tags.total_refs           144931929                       # Total number of references to valid blocks.
system.cpu.dcache.tags.sampled_refs            437673                       # Sample count of references to valid blocks.
system.cpu.dcache.tags.avg_refs            331.142038                       # Average number of references to valid blocks.
system.cpu.dcache.tags.warmup_cycle            770000                       # Cycle when the warmup percentage was hit.
system.cpu.dcache.tags.occ_blocks::cpu.data   511.654630                       # Average occupied blocks per requestor
system.cpu.dcache.tags.occ_percent::cpu.data     0.999325                       # Average percentage of cache occupancy
system.cpu.dcache.tags.occ_percent::total     0.999325                       # Average percentage of cache occupancy
system.cpu.dcache.tags.occ_task_id_blocks::1024          512                       # Occupied blocks per task id
system.cpu.dcache.tags.age_task_id_blocks_1024::0            7                       # Occupied blocks per task id
system.cpu.dcache.tags.age_task_id_blocks_1024::1           55                       # Occupied blocks per task id
system.cpu.dcache.tags.age_task_id_blocks_1024::2           18                       # Occupied blocks per task id
system.cpu.dcache.tags.age_task_id_blocks_1024::3          432                       # Occupied blocks per task id
system.cpu.dcache.tags.occ_task_id_percent::1024            1                       # Percentage of cache occupancy per task id
system.cpu.dcache.tags.tag_accesses         145369602                       # Number of tag accesses
system.cpu.dcache.tags.data_accesses        145369602                       # Number of data accesses
system.cpu.dcache.pwrStateResidencyTicks::UNDEFINED 518358564000                       # Cumulative time (in ticks) in various power states
system.cpu.dcache.ReadReq_hits::cpu.data    115727467                       # number of ReadReq hits
system.cpu.dcache.ReadReq_hits::total       115727467                       # number of ReadReq hits
system.cpu.dcache.WriteReq_hits::cpu.data     28701777                       # number of WriteReq hits
system.cpu.dcache.WriteReq_hits::total       28701777                       # number of WriteReq hits
system.cpu.dcache.demand_hits::cpu.data     144429244                       # number of demand (read+write) hits
system.cpu.dcache.demand_hits::total        144429244                       # number of demand (read+write) hits
system.cpu.dcache.overall_hits::cpu.data    144429244                       # number of overall hits
system.cpu.dcache.overall_hits::total       144429244                       # number of overall hits
system.cpu.dcache.ReadReq_misses::cpu.data       374851                       # number of ReadReq misses
system.cpu.dcache.ReadReq_misses::total        374851                       # number of ReadReq misses
system.cpu.dcache.WriteReq_misses::cpu.data       127834                       # number of WriteReq misses
system.cpu.dcache.WriteReq_misses::total       127834                       # number of WriteReq misses
system.cpu.dcache.demand_misses::cpu.data       502685                       # number of demand (read+write) misses
system.cpu.dcache.demand_misses::total         502685                       # number of demand (read+write) misses
system.cpu.dcache.overall_misses::cpu.data       502685                       # number of overall misses
system.cpu.dcache.overall_misses::total        502685                       # number of overall misses
system.cpu.dcache.ReadReq_miss_latency::cpu.data  30416095500                       # number of ReadReq miss cycles
system.cpu.dcache.ReadReq_miss_latency::total  30416095500                       # number of ReadReq miss cycles
system.cpu.dcache.WriteReq_miss_latency::cpu.data   9462548000                       # number of WriteReq miss cycles
system.cpu.dcache.WriteReq_miss_latency::total   9462548000                       # number of WriteReq miss cycles
system.cpu.dcache.demand_miss_latency::cpu.data  39878643500                       # number of demand (read+write) miss cycles
system.cpu.dcache.demand_miss_latency::total  39878643500                       # number of demand (read+write) miss cycles
system.cpu.dcache.overall_miss_latency::cpu.data  39878643500                       # number of overall miss cycles
system.cpu.dcache.overall_miss_latency::total  39878643500                       # number of overall miss cycles
system.cpu.dcache.ReadReq_accesses::cpu.data    116102318                       # number of ReadReq accesses(hits+misses)
system.cpu.dcache.ReadReq_accesses::total    116102318                       # number of ReadReq accesses(hits+misses)
system.cpu.dcache.WriteReq_accesses::cpu.data     28829611                       # number of WriteReq accesses(hits+misses)
system.cpu.dcache.WriteReq_accesses::total     28829611                       # number of WriteReq accesses(hits+misses)
system.cpu.dcache.demand_accesses::cpu.data    144931929                       # number of demand (read+write) accesses
system.cpu.dcache.demand_accesses::total    144931929                       # number of demand (read+write) accesses
system.cpu.dcache.overall_accesses::cpu.data    144931929                       # number of overall (read+write) accesses
system.cpu.dcache.overall_accesses::total    144931929                       # number of overall (read+write) accesses
system.cpu.dcache.ReadReq_miss_rate::cpu.data     0.003229                       # miss rate for ReadReq accesses
system.cpu.dcache.ReadReq_miss_rate::total     0.003229                       # miss rate for ReadReq accesses
system.cpu.dcache.WriteReq_miss_rate::cpu.data     0.004434                       # miss rate for WriteReq accesses
system.cpu.dcache.WriteReq_miss_rate::total     0.004434                       # miss rate for WriteReq accesses
system.cpu.dcache.demand_miss_rate::cpu.data     0.003468                       # miss rate for demand accesses
system.cpu.dcache.demand_miss_rate::total     0.003468                       # miss rate for demand accesses
system.cpu.dcache.overall_miss_rate::cpu.data     0.003468                       # miss rate for overall accesses
system.cpu.dcache.overall_miss_rate::total     0.003468                       # miss rate for overall accesses
system.cpu.dcache.ReadReq_avg_miss_latency::cpu.data 81141.828353                       # average ReadReq miss latency
system.cpu.dcache.ReadReq_avg_miss_latency::total 81141.828353                       # average ReadReq miss latency
system.cpu.dcache.WriteReq_avg_miss_latency::cpu.data 74022.153731                       # average WriteReq miss latency
system.cpu.dcache.WriteReq_avg_miss_latency::total 74022.153731                       # average WriteReq miss latency
system.cpu.dcache.demand_avg_miss_latency::cpu.data 79331.278037                       # average overall miss latency
system.cpu.dcache.demand_avg_miss_latency::total 79331.278037                       # average overall miss latency
system.cpu.dcache.overall_avg_miss_latency::cpu.data 79331.278037                       # average overall miss latency
system.cpu.dcache.overall_avg_miss_latency::total 79331.278037                       # average overall miss latency
system.cpu.dcache.blocked_cycles::no_mshrs            0                       # number of cycles access was blocked
system.cpu.dcache.blocked_cycles::no_targets            0                       # number of cycles access was blocked
system.cpu.dcache.blocked::no_mshrs                 0                       # number of cycles access was blocked
system.cpu.dcache.blocked::no_targets               0                       # number of cycles access was blocked
system.cpu.dcache.avg_blocked_cycles::no_mshrs          nan                       # average number of cycles each access was blocked
system.cpu.dcache.avg_blocked_cycles::no_targets          nan                       # average number of cycles each access was blocked
system.cpu.dcache.writebacks::writebacks       429881                       # number of writebacks
system.cpu.dcache.writebacks::total            429881                       # number of writebacks
system.cpu.dcache.ReadReq_mshr_misses::cpu.data       374851                       # number of ReadReq MSHR misses
system.cpu.dcache.ReadReq_mshr_misses::total       374851                       # number of ReadReq MSHR misses
system.cpu.dcache.WriteReq_mshr_misses::cpu.data       127834                       # number of WriteReq MSHR misses
system.cpu.dcache.WriteReq_mshr_misses::total       127834                       # number of WriteReq MSHR misses
system.cpu.dcache.demand_mshr_misses::cpu.data       502685                       # number of demand (read+write) MSHR misses
system.cpu.dcache.demand_mshr_misses::total       502685                       # number of demand (read+write) MSHR misses
system.cpu.dcache.overall_mshr_misses::cpu.data       502685                       # number of overall MSHR misses
system.cpu.dcache.overall_mshr_misses::total       502685                       # number of overall MSHR misses
system.cpu.dcache.ReadReq_mshr_miss_latency::cpu.data  30041244500                       # number of ReadReq MSHR miss cycles
system.cpu.dcache.ReadReq_mshr_miss_latency::total  30041244500                       # number of ReadReq MSHR miss cycles
system.cpu.dcache.WriteReq_mshr_miss_latency::cpu.data   9334714000                       # number of WriteReq MSHR miss cycles
system.cpu.dcache.WriteReq_mshr_miss_latency::total   9334714000                       # number of WriteReq MSHR miss cycles
system.cpu.dcache.demand_mshr_miss_latency::cpu.data  39375958500                       # number of demand (read+write) MSHR miss cycles
system.cpu.dcache.demand_mshr_miss_latency::total  39375958500                       # number of demand (read+write) MSHR miss cycles
system.cpu.dcache.overall_mshr_miss_latency::cpu.data  39375958500                       # number of overall MSHR miss cycles
system.cpu.dcache.overall_mshr_miss_latency::total  39375958500                       # number of overall MSHR miss cycles
system.cpu.dcache.ReadReq_mshr_miss_rate::cpu.data     0.003229                       # mshr miss rate for ReadReq accesses
system.cpu.dcache.ReadReq_mshr_miss_rate::total     0.003229                       # mshr miss rate for ReadReq accesses
system.cpu.dcache.WriteReq_mshr_miss_rate::cpu.data     0.004434                       # mshr miss rate for WriteReq accesses
system.cpu.dcache.WriteReq_mshr_miss_rate::total     0.004434                       # mshr miss rate for WriteReq accesses
system.cpu.dcache.demand_mshr_miss_rate::cpu.data     0.003468                       # mshr miss rate for demand accesses
system.cpu.dcache.demand_mshr_miss_rate::total     0.003468                       # mshr miss rate for demand accesses
system.cpu.dcache.overall_mshr_miss_rate::cpu.data     0.003468                       # mshr miss rate for overall accesses
system.cpu.dcache.overall_mshr_miss_rate::total     0.003468                       # mshr miss rate for overall accesses
system.cpu.dcache.ReadReq_avg_mshr_miss_latency::cpu.data 80141.828353                       # average ReadReq mshr miss latency
system.cpu.dcache.ReadReq_avg_mshr_miss_latency::total 80141.828353                       # average ReadReq mshr miss latency
system.cpu.dcache.WriteReq_avg_mshr_miss_latency::cpu.data 73022.153731                       # average WriteReq mshr miss latency
system.cpu.dcache.WriteReq_avg_mshr_miss_latency::total 73022.153731                       # average WriteReq mshr miss latency
system.cpu.dcache.demand_avg_mshr_miss_latency::cpu.data 78331.278037                       # average overall mshr miss latency
system.cpu.dcache.demand_avg_mshr_miss_latency::total 78331.278037                       # average overall mshr miss latency
system.cpu.dcache.overall_avg_mshr_miss_latency::cpu.data 78331.278037                       # average overall mshr miss latency
system.cpu.dcache.overall_avg_mshr_miss_latency::total 78331.278037                       # average overall mshr miss latency
system.cpu.dcache.replacements                 437161                       # number of replacements
system.cpu.dtb_walker_cache.tags.pwrStateResidencyTicks::UNDEFINED 518358564000                       # Cumulative time (in ticks) in various power states
system.cpu.dtb_walker_cache.tags.tagsinuse            0                       # Cycle average of tags in use
system.cpu.dtb_walker_cache.tags.total_refs            0                       # Total number of references to valid blocks.
system.cpu.dtb_walker_cache.tags.sampled_refs            0                       # Sample count of references to valid blocks.
system.cpu.dtb_walker_cache.tags.avg_refs          nan                       # Average number of references to valid blocks.
system.cpu.dtb_walker_cache.tags.warmup_cycle            0                       # Cycle when the warmup percentage was hit.
system.cpu.dtb_walker_cache.tags.tag_accesses            0                       # Number of tag accesses
system.cpu.dtb_walker_cache.tags.data_accesses            0                       # Number of data accesses
system.cpu.dtb_walker_cache.pwrStateResidencyTicks::UNDEFINED 518358564000                       # Cumulative time (in ticks) in various power states
system.cpu.dtb_walker_cache.blocked_cycles::no_mshrs            0                       # number of cycles access was blocked
system.cpu.dtb_walker_cache.blocked_cycles::no_targets            0                       # number of cycles access was blocked
system.cpu.dtb_walker_cache.blocked::no_mshrs            0                       # number of cycles access was blocked
system.cpu.dtb_walker_cache.blocked::no_targets            0                       # number of cycles access was blocked
system.cpu.dtb_walker_cache.avg_blocked_cycles::no_mshrs          nan                       # average number of cycles each access was blocked
system.cpu.dtb_walker_cache.avg_blocked_cycles::no_targets          nan                       # average number of cycles each access was blocked
system.cpu.dtb_walker_cache.replacements            0                       # number of replacements
system.cpu.icache.tags.pwrStateResidencyTicks::UNDEFINED 518358564000                       # Cumulative time (in ticks) in various power states
system.cpu.icache.tags.tagsinuse           411.777715                       # Cycle average of tags in use
system.cpu.icache.tags.total_refs           333920997                       # Total number of references to valid blocks.
system.cpu.icache.tags.sampled_refs               852                       # Sample count of references to valid blocks.
system.cpu.icache.tags.avg_refs          391926.052817                       # Average number of references to valid blocks.
system.cpu.icache.tags.warmup_cycle            445000                       # Cycle when the warmup percentage was hit.
system.cpu.icache.tags.occ_blocks::cpu.inst   411.777715                       # Average occupied blocks per requestor
system.cpu.icache.tags.occ_percent::cpu.inst     0.804253                       # Average percentage of cache occupancy
system.cpu.icache.tags.occ_percent::total     0.804253                       # Average percentage of cache occupancy
system.cpu.icache.tags.occ_task_id_blocks::1024          424                       # Occupied blocks per task id
system.cpu.icache.tags.age_task_id_blocks_1024::0           20                       # Occupied blocks per task id
system.cpu.icache.tags.age_task_id_blocks_1024::1           39                       # Occupied blocks per task id
system.cpu.icache.tags.age_task_id_blocks_1024::4          365                       # Occupied blocks per task id
system.cpu.icache.tags.occ_task_id_percent::1024     0.828125                       # Percentage of cache occupancy per task id
system.cpu.icache.tags.tag_accesses         333921849                       # Number of tag accesses
system.cpu.icache.tags.data_accesses        333921849                       # Number of data accesses
system.cpu.icache.pwrStateResidencyTicks::UNDEFINED 518358564000                       # Cumulative time (in ticks) in various power states
system.cpu.icache.ReadReq_hits::cpu.inst    333920145                       # number of ReadReq hits
system.cpu.icache.ReadReq_hits::total       333920145                       # number of ReadReq hits
system.cpu.icache.demand_hits::cpu.inst     333920145                       # number of demand (read+write) hits
system.cpu.icache.demand_hits::total        333920145                       # number of demand (read+write) hits
system.cpu.icache.overall_hits::cpu.inst    333920145                       # number of overall hits
system.cpu.icache.overall_hits::total       333920145                       # number of overall hits
system.cpu.icache.ReadReq_misses::cpu.inst          852                       # number of ReadReq misses
system.cpu.icache.ReadReq_misses::total           852                       # number of ReadReq misses
system.cpu.icache.demand_misses::cpu.inst          852                       # number of demand (read+write) misses
system.cpu.icache.demand_misses::total            852                       # number of demand (read+write) misses
system.cpu.icache.overall_misses::cpu.inst          852                       # number of overall misses
system.cpu.icache.overall_misses::total           852                       # number of overall misses
system.cpu.icache.ReadReq_miss_latency::cpu.inst    130542000                       # number of ReadReq miss cycles
system.cpu.icache.ReadReq_miss_latency::total    130542000                       # number of ReadReq miss cycles
system.cpu.icache.demand_miss_latency::cpu.inst    130542000                       # number of demand (read+write) miss cycles
system.cpu.icache.demand_miss_latency::total    130542000                       # number of demand (read+write) miss cycles
system.cpu.icache.overall_miss_latency::cpu.inst    130542000                       # number of overall miss cycles
system.cpu.icache.overall_miss_latency::total    130542000                       # number of overall miss cycles
system.cpu.icache.ReadReq_accesses::cpu.inst    333920997                       # number of ReadReq accesses(hits+misses)
system.cpu.icache.ReadReq_accesses::total    333920997                       # number of ReadReq accesses(hits+misses)
system.cpu.icache.demand_accesses::cpu.inst    333920997                       # number of demand (read+write) accesses
system.cpu.icache.demand_accesses::total    333920997                       # number of demand (read+write) accesses
system.cpu.icache.overall_accesses::cpu.inst    333920997                       # number of overall (read+write) accesses
system.cpu.icache.overall_accesses::total    333920997                       # number of overall (read+write) accesses
system.cpu.icache.ReadReq_miss_rate::cpu.inst     0.000003                       # miss rate for ReadReq accesses
system.cpu.icache.ReadReq_miss_rate::total     0.000003                       # miss rate for ReadReq accesses
system.cpu.icache.demand_miss_rate::cpu.inst     0.000003                       # miss rate for demand accesses
system.cpu.icache.demand_miss_rate::total     0.000003                       # miss rate for demand accesses
system.cpu.icache.overall_miss_rate::cpu.inst     0.000003                       # miss rate for overall accesses
system.cpu.icache.overall_miss_rate::total     0.000003                       # miss rate for overall accesses
system.cpu.icache.ReadReq_avg_miss_latency::cpu.inst 153218.309859                       # average ReadReq miss latency
system.cpu.icache.ReadReq_avg_miss_latency::total 153218.309859                       # average ReadReq miss latency
system.cpu.icache.demand_avg_miss_latency::cpu.inst 153218.309859                       # average overall miss latency
system.cpu.icache.demand_avg_miss_latency::total 153218.309859                       # average overall miss latency
system.cpu.icache.overall_avg_miss_latency::cpu.inst 153218.309859                       # average overall miss latency
system.cpu.icache.overall_avg_miss_latency::total 153218.309859                       # average overall miss latency
system.cpu.icache.blocked_cycles::no_mshrs            0                       # number of cycles access was blocked
system.cpu.icache.blocked_cycles::no_targets            0                       # number of cycles access was blocked
system.cpu.icache.blocked::no_mshrs                 0                       # number of cycles access was blocked
system.cpu.icache.blocked::no_targets               0                       # number of cycles access was blocked
system.cpu.icache.avg_blocked_cycles::no_mshrs          nan                       # average number of cycles each access was blocked
system.cpu.icache.avg_blocked_cycles::no_targets          nan                       # average number of cycles each access was blocked
system.cpu.icache.writebacks::writebacks          428                       # number of writebacks
system.cpu.icache.writebacks::total               428                       # number of writebacks
system.cpu.icache.ReadReq_mshr_misses::cpu.inst          852                       # number of ReadReq MSHR misses
system.cpu.icache.ReadReq_mshr_misses::total          852                       # number of ReadReq MSHR misses
system.cpu.icache.demand_mshr_misses::cpu.inst          852                       # number of demand (read+write) MSHR misses
system.cpu.icache.demand_mshr_misses::total          852                       # number of demand (read+write) MSHR misses
system.cpu.icache.overall_mshr_misses::cpu.inst          852                       # number of overall MSHR misses
system.cpu.icache.overall_mshr_misses::total          852                       # number of overall MSHR misses
system.cpu.icache.ReadReq_mshr_miss_latency::cpu.inst    129690000                       # number of ReadReq MSHR miss cycles
system.cpu.icache.ReadReq_mshr_miss_latency::total    129690000                       # number of ReadReq MSHR miss cycles
system.cpu.icache.demand_mshr_miss_latency::cpu.inst    129690000                       # number of demand (read+write) MSHR miss cycles
system.cpu.icache.demand_mshr_miss_latency::total    129690000                       # number of demand (read+write) MSHR miss cycles
system.cpu.icache.overall_mshr_miss_latency::cpu.inst    129690000                       # number of overall MSHR miss cycles
system.cpu.icache.overall_mshr_miss_latency::total    129690000                       # number of overall MSHR miss cycles
system.cpu.icache.ReadReq_mshr_miss_rate::cpu.inst     0.000003                       # mshr miss rate for ReadReq accesses
system.cpu.icache.ReadReq_mshr_miss_rate::total     0.000003                       # mshr miss rate for ReadReq accesses
system.cpu.icache.demand_mshr_miss_rate::cpu.inst     0.000003                       # mshr miss rate for demand accesses
system.cpu.icache.demand_mshr_miss_rate::total     0.000003                       # mshr miss rate for demand accesses
system.cpu.icache.overall_mshr_miss_rate::cpu.inst     0.000003                       # mshr miss rate for overall accesses
system.cpu.icache.overall_mshr_miss_rate::total     0.000003                       # mshr miss rate for overall accesses
system.cpu.icache.ReadReq_avg_mshr_miss_latency::cpu.inst 152218.309859                       # average ReadReq mshr miss latency
system.cpu.icache.ReadReq_avg_mshr_miss_latency::total 152218.309859                       # average ReadReq mshr miss latency
system.cpu.icache.demand_avg_mshr_miss_latency::cpu.inst 152218.309859                       # average overall mshr miss latency
system.cpu.icache.demand_avg_mshr_miss_latency::total 152218.309859                       # average overall mshr miss latency
system.cpu.icache.overall_avg_mshr_miss_latency::cpu.inst 152218.309859                       # average overall mshr miss latency
system.cpu.icache.overall_avg_mshr_miss_latency::total 152218.309859                       # average overall mshr miss latency
system.cpu.icache.replacements                    428                       # number of replacements
system.cpu.itb_walker_cache.tags.pwrStateResidencyTicks::UNDEFINED 518358564000                       # Cumulative time (in ticks) in various power states
system.cpu.itb_walker_cache.tags.tagsinuse            0                       # Cycle average of tags in use
system.cpu.itb_walker_cache.tags.total_refs            0                       # Total number of references to valid blocks.
system.cpu.itb_walker_cache.tags.sampled_refs            0                       # Sample count of references to valid blocks.
system.cpu.itb_walker_cache.tags.avg_refs          nan                       # Average number of references to valid blocks.
system.cpu.itb_walker_cache.tags.warmup_cycle            0                       # Cycle when the warmup percentage was hit.
system.cpu.itb_walker_cache.tags.tag_accesses            0                       # Number of tag accesses
system.cpu.itb_walker_cache.tags.data_accesses            0                       # Number of data accesses
system.cpu.itb_walker_cache.pwrStateResidencyTicks::UNDEFINED 518358564000                       # Cumulative time (in ticks) in various power states
system.cpu.itb_walker_cache.blocked_cycles::no_mshrs            0                       # number of cycles access was blocked
system.cpu.itb_walker_cache.blocked_cycles::no_targets            0                       # number of cycles access was blocked
system.cpu.itb_walker_cache.blocked::no_mshrs            0                       # number of cycles access was blocked
system.cpu.itb_walker_cache.blocked::no_targets            0                       # number of cycles access was blocked
system.cpu.itb_walker_cache.avg_blocked_cycles::no_mshrs          nan                       # average number of cycles each access was blocked
system.cpu.itb_walker_cache.avg_blocked_cycles::no_targets          nan                       # average number of cycles each access was blocked
system.cpu.itb_walker_cache.replacements            0                       # number of replacements
system.l2.tags.pwrStateResidencyTicks::UNDEFINED 518358564000                       # Cumulative time (in ticks) in various power states
system.l2.tags.tagsinuse                  4066.430620                       # Cycle average of tags in use
system.l2.tags.total_refs                      935782                       # Total number of references to valid blocks.
system.l2.tags.sampled_refs                    194420                       # Sample count of references to valid blocks.
system.l2.tags.avg_refs                      4.813198                       # Average number of references to valid blocks.
system.l2.tags.warmup_cycle                    434500                       # Cycle when the warmup percentage was hit.
system.l2.tags.occ_blocks::writebacks      162.939520                       # Average occupied blocks per requestor
system.l2.tags.occ_blocks::cpu.inst          4.839282                       # Average occupied blocks per requestor
system.l2.tags.occ_blocks::cpu.data       3898.651818                       # Average occupied blocks per requestor
system.l2.tags.occ_percent::writebacks       0.039780                       # Average percentage of cache occupancy
system.l2.tags.occ_percent::cpu.inst         0.001181                       # Average percentage of cache occupancy
system.l2.tags.occ_percent::cpu.data         0.951819                       # Average percentage of cache occupancy
system.l2.tags.occ_percent::total            0.992781                       # Average percentage of cache occupancy
system.l2.tags.occ_task_id_blocks::1024          4096                       # Occupied blocks per task id
system.l2.tags.age_task_id_blocks_1024::0           32                       # Occupied blocks per task id
system.l2.tags.age_task_id_blocks_1024::1          112                       # Occupied blocks per task id
system.l2.tags.age_task_id_blocks_1024::4         3952                       # Occupied blocks per task id
system.l2.tags.occ_task_id_percent::1024            1                       # Percentage of cache occupancy per task id
system.l2.tags.tag_accesses                   1135545                       # Number of tag accesses
system.l2.tags.data_accesses                  1135545                       # Number of data accesses
system.l2.pwrStateResidencyTicks::UNDEFINED 518358564000                       # Cumulative time (in ticks) in various power states
system.l2.WritebackDirty_hits::writebacks       429881                       # number of WritebackDirty hits
system.l2.WritebackDirty_hits::total           429881                       # number of WritebackDirty hits
system.l2.WritebackClean_hits::writebacks          427                       # number of WritebackClean hits
system.l2.WritebackClean_hits::total              427                       # number of WritebackClean hits
system.l2.UpgradeReq_hits::cpu.data             60264                       # number of UpgradeReq hits
system.l2.UpgradeReq_hits::total                60264                       # number of UpgradeReq hits
system.l2.ReadExReq_hits::cpu.data              30748                       # number of ReadExReq hits
system.l2.ReadExReq_hits::total                 30748                       # number of ReadExReq hits
system.l2.ReadCleanReq_hits::cpu.inst              95                       # number of ReadCleanReq hits
system.l2.ReadCleanReq_hits::total                 95                       # number of ReadCleanReq hits
system.l2.ReadSharedReq_hits::cpu.data         247531                       # number of ReadSharedReq hits
system.l2.ReadSharedReq_hits::total            247531                       # number of ReadSharedReq hits
system.l2.demand_hits::cpu.inst                    95                       # number of demand (read+write) hits
system.l2.demand_hits::cpu.data                278279                       # number of demand (read+write) hits
system.l2.demand_hits::total                   278374                       # number of demand (read+write) hits
system.l2.overall_hits::cpu.inst                   95                       # number of overall hits
system.l2.overall_hits::cpu.data               278279                       # number of overall hits
system.l2.overall_hits::total                  278374                       # number of overall hits
system.l2.UpgradeReq_misses::cpu.data            4748                       # number of UpgradeReq misses
system.l2.UpgradeReq_misses::total               4748                       # number of UpgradeReq misses
system.l2.ReadExReq_misses::cpu.data            32074                       # number of ReadExReq misses
system.l2.ReadExReq_misses::total               32074                       # number of ReadExReq misses
system.l2.ReadCleanReq_misses::cpu.inst           757                       # number of ReadCleanReq misses
system.l2.ReadCleanReq_misses::total              757                       # number of ReadCleanReq misses
system.l2.ReadSharedReq_misses::cpu.data       127320                       # number of ReadSharedReq misses
system.l2.ReadSharedReq_misses::total          127320                       # number of ReadSharedReq misses
system.l2.demand_misses::cpu.inst                 757                       # number of demand (read+write) misses
system.l2.demand_misses::cpu.data              159394                       # number of demand (read+write) misses
system.l2.demand_misses::total                 160151                       # number of demand (read+write) misses
system.l2.overall_misses::cpu.inst                757                       # number of overall misses
system.l2.overall_misses::cpu.data             159394                       # number of overall misses
system.l2.overall_misses::total                160151                       # number of overall misses
system.l2.ReadExReq_miss_latency::cpu.data   8009286000                       # number of ReadExReq miss cycles
system.l2.ReadExReq_miss_latency::total    8009286000                       # number of ReadExReq miss cycles
system.l2.ReadCleanReq_miss_latency::cpu.inst    127408000                       # number of ReadCleanReq miss cycles
system.l2.ReadCleanReq_miss_latency::total    127408000                       # number of ReadCleanReq miss cycles
system.l2.ReadSharedReq_miss_latency::cpu.data  26879888000                       # number of ReadSharedReq miss cycles
system.l2.ReadSharedReq_miss_latency::total  26879888000                       # number of ReadSharedReq miss cycles
system.l2.demand_miss_latency::cpu.inst     127408000                       # number of demand (read+write) miss cycles
system.l2.demand_miss_latency::cpu.data   34889174000                       # number of demand (read+write) miss cycles
system.l2.demand_miss_latency::total      35016582000                       # number of demand (read+write) miss cycles
system.l2.overall_miss_latency::cpu.inst    127408000                       # number of overall miss cycles
system.l2.overall_miss_latency::cpu.data  34889174000                       # number of overall miss cycles
system.l2.overall_miss_latency::total     35016582000                       # number of overall miss cycles
system.l2.WritebackDirty_accesses::writebacks       429881                       # number of WritebackDirty accesses(hits+misses)
system.l2.WritebackDirty_accesses::total       429881                       # number of WritebackDirty accesses(hits+misses)
system.l2.WritebackClean_accesses::writebacks          427                       # number of WritebackClean accesses(hits+misses)
system.l2.WritebackClean_accesses::total          427                       # number of WritebackClean accesses(hits+misses)
system.l2.UpgradeReq_accesses::cpu.data         65012                       # number of UpgradeReq accesses(hits+misses)
system.l2.UpgradeReq_accesses::total            65012                       # number of UpgradeReq accesses(hits+misses)
system.l2.ReadExReq_accesses::cpu.data          62822                       # number of ReadExReq accesses(hits+misses)
system.l2.ReadExReq_accesses::total             62822                       # number of ReadExReq accesses(hits+misses)
system.l2.ReadCleanReq_accesses::cpu.inst          852                       # number of ReadCleanReq accesses(hits+misses)
system.l2.ReadCleanReq_accesses::total            852                       # number of ReadCleanReq accesses(hits+misses)
system.l2.ReadSharedReq_accesses::cpu.data       374851                       # number of ReadSharedReq accesses(hits+misses)
system.l2.ReadSharedReq_accesses::total        374851                       # number of ReadSharedReq accesses(hits+misses)
system.l2.demand_accesses::cpu.inst               852                       # number of demand (read+write) accesses
system.l2.demand_accesses::cpu.data            437673                       # number of demand (read+write) accesses
system.l2.demand_accesses::total               438525                       # number of demand (read+write) accesses
system.l2.overall_accesses::cpu.inst              852                       # number of overall (read+write) accesses
system.l2.overall_accesses::cpu.data           437673                       # number of overall (read+write) accesses
system.l2.overall_accesses::total              438525                       # number of overall (read+write) accesses
system.l2.UpgradeReq_miss_rate::cpu.data     0.073033                       # miss rate for UpgradeReq accesses
system.l2.UpgradeReq_miss_rate::total        0.073033                       # miss rate for UpgradeReq accesses
system.l2.ReadExReq_miss_rate::cpu.data      0.510554                       # miss rate for ReadExReq accesses
system.l2.ReadExReq_miss_rate::total         0.510554                       # miss rate for ReadExReq accesses
system.l2.ReadCleanReq_miss_rate::cpu.inst     0.888498                       # miss rate for ReadCleanReq accesses
system.l2.ReadCleanReq_miss_rate::total      0.888498                       # miss rate for ReadCleanReq accesses
system.l2.ReadSharedReq_miss_rate::cpu.data     0.339655                       # miss rate for ReadSharedReq accesses
system.l2.ReadSharedReq_miss_rate::total     0.339655                       # miss rate for ReadSharedReq accesses
system.l2.demand_miss_rate::cpu.inst         0.888498                       # miss rate for demand accesses
system.l2.demand_miss_rate::cpu.data         0.364185                       # miss rate for demand accesses
system.l2.demand_miss_rate::total            0.365204                       # miss rate for demand accesses
system.l2.overall_miss_rate::cpu.inst        0.888498                       # miss rate for overall accesses
system.l2.overall_miss_rate::cpu.data        0.364185                       # miss rate for overall accesses
system.l2.overall_miss_rate::total           0.365204                       # miss rate for overall accesses
system.l2.ReadExReq_avg_miss_latency::cpu.data 249712.726819                       # average ReadExReq miss latency
system.l2.ReadExReq_avg_miss_latency::total 249712.726819                       # average ReadExReq miss latency
system.l2.ReadCleanReq_avg_miss_latency::cpu.inst 168306.472919                       # average ReadCleanReq miss latency
system.l2.ReadCleanReq_avg_miss_latency::total 168306.472919                       # average ReadCleanReq miss latency
system.l2.ReadSharedReq_avg_miss_latency::cpu.data 211120.703739                       # average ReadSharedReq miss latency
system.l2.ReadSharedReq_avg_miss_latency::total 211120.703739                       # average ReadSharedReq miss latency
system.l2.demand_avg_miss_latency::cpu.inst 168306.472919                       # average overall miss latency
system.l2.demand_avg_miss_latency::cpu.data 218886.369625                       # average overall miss latency
system.l2.demand_avg_miss_latency::total 218647.289121                       # average overall miss latency
system.l2.overall_avg_miss_latency::cpu.inst 168306.472919                       # average overall miss latency
system.l2.overall_avg_miss_latency::cpu.data 218886.369625                       # average overall miss latency
system.l2.overall_avg_miss_latency::total 218647.289121                       # average overall miss latency
system.l2.blocked_cycles::no_mshrs                  0                       # number of cycles access was blocked
system.l2.blocked_cycles::no_targets                0                       # number of cycles access was blocked
system.l2.blocked::no_mshrs                         0                       # number of cycles access was blocked
system.l2.blocked::no_targets                       0                       # number of cycles access was blocked
system.l2.avg_blocked_cycles::no_mshrs            nan                       # average number of cycles each access was blocked
system.l2.avg_blocked_cycles::no_targets          nan                       # average number of cycles each access was blocked
system.l2.writebacks::writebacks               158858                       # number of writebacks
system.l2.writebacks::total                    158858                       # number of writebacks
system.l2.CleanEvict_mshr_misses::writebacks          595                       # number of CleanEvict MSHR misses
system.l2.CleanEvict_mshr_misses::total           595                       # number of CleanEvict MSHR misses
system.l2.UpgradeReq_mshr_misses::cpu.data         4748                       # number of UpgradeReq MSHR misses
system.l2.UpgradeReq_mshr_misses::total          4748                       # number of UpgradeReq MSHR misses
system.l2.ReadExReq_mshr_misses::cpu.data        32074                       # number of ReadExReq MSHR misses
system.l2.ReadExReq_mshr_misses::total          32074                       # number of ReadExReq MSHR misses
system.l2.ReadCleanReq_mshr_misses::cpu.inst          757                       # number of ReadCleanReq MSHR misses
system.l2.ReadCleanReq_mshr_misses::total          757                       # number of ReadCleanReq MSHR misses
system.l2.ReadSharedReq_mshr_misses::cpu.data       127320                       # number of ReadSharedReq MSHR misses
system.l2.ReadSharedReq_mshr_misses::total       127320                       # number of ReadSharedReq MSHR misses
system.l2.demand_mshr_misses::cpu.inst            757                       # number of demand (read+write) MSHR misses
system.l2.demand_mshr_misses::cpu.data         159394                       # number of demand (read+write) MSHR misses
system.l2.demand_mshr_misses::total            160151                       # number of demand (read+write) MSHR misses
system.l2.overall_mshr_misses::cpu.inst           757                       # number of overall MSHR misses
system.l2.overall_mshr_misses::cpu.data        159394                       # number of overall MSHR misses
system.l2.overall_mshr_misses::total           160151                       # number of overall MSHR misses
system.l2.UpgradeReq_mshr_miss_latency::cpu.data    130570000                       # number of UpgradeReq MSHR miss cycles
system.l2.UpgradeReq_mshr_miss_latency::total    130570000                       # number of UpgradeReq MSHR miss cycles
system.l2.ReadExReq_mshr_miss_latency::cpu.data   7688546000                       # number of ReadExReq MSHR miss cycles
system.l2.ReadExReq_mshr_miss_latency::total   7688546000                       # number of ReadExReq MSHR miss cycles
system.l2.ReadCleanReq_mshr_miss_latency::cpu.inst    119838000                       # number of ReadCleanReq MSHR miss cycles
system.l2.ReadCleanReq_mshr_miss_latency::total    119838000                       # number of ReadCleanReq MSHR miss cycles
system.l2.ReadSharedReq_mshr_miss_latency::cpu.data  25606688000                       # number of ReadSharedReq MSHR miss cycles
system.l2.ReadSharedReq_mshr_miss_latency::total  25606688000                       # number of ReadSharedReq MSHR miss cycles
system.l2.demand_mshr_miss_latency::cpu.inst    119838000                       # number of demand (read+write) MSHR miss cycles
system.l2.demand_mshr_miss_latency::cpu.data  33295234000                       # number of demand (read+write) MSHR miss cycles
system.l2.demand_mshr_miss_latency::total  33415072000                       # number of demand (read+write) MSHR miss cycles
system.l2.overall_mshr_miss_latency::cpu.inst    119838000                       # number of overall MSHR miss cycles
system.l2.overall_mshr_miss_latency::cpu.data  33295234000                       # number of overall MSHR miss cycles
system.l2.overall_mshr_miss_latency::total  33415072000                       # number of overall MSHR miss cycles
system.l2.CleanEvict_mshr_miss_rate::writebacks          inf                       # mshr miss rate for CleanEvict accesses
system.l2.CleanEvict_mshr_miss_rate::total          inf                       # mshr miss rate for CleanEvict accesses
system.l2.UpgradeReq_mshr_miss_rate::cpu.data     0.073033                       # mshr miss rate for UpgradeReq accesses
system.l2.UpgradeReq_mshr_miss_rate::total     0.073033                       # mshr miss rate for UpgradeReq accesses
system.l2.ReadExReq_mshr_miss_rate::cpu.data     0.510554                       # mshr miss rate for ReadExReq accesses
system.l2.ReadExReq_mshr_miss_rate::total     0.510554                       # mshr miss rate for ReadExReq accesses
system.l2.ReadCleanReq_mshr_miss_rate::cpu.inst     0.888498                       # mshr miss rate for ReadCleanReq accesses
system.l2.ReadCleanReq_mshr_miss_rate::total     0.888498                       # mshr miss rate for ReadCleanReq accesses
system.l2.ReadSharedReq_mshr_miss_rate::cpu.data     0.339655                       # mshr miss rate for ReadSharedReq accesses
system.l2.ReadSharedReq_mshr_miss_rate::total     0.339655                       # mshr miss rate for ReadSharedReq accesses
system.l2.demand_mshr_miss_rate::cpu.inst     0.888498                       # mshr miss rate for demand accesses
system.l2.demand_mshr_miss_rate::cpu.data     0.364185                       # mshr miss rate for demand accesses
system.l2.demand_mshr_miss_rate::total       0.365204                       # mshr miss rate for demand accesses
system.l2.overall_mshr_miss_rate::cpu.inst     0.888498                       # mshr miss rate for overall accesses
system.l2.overall_mshr_miss_rate::cpu.data     0.364185                       # mshr miss rate for overall accesses
system.l2.overall_mshr_miss_rate::total      0.365204                       # mshr miss rate for overall accesses
system.l2.UpgradeReq_avg_mshr_miss_latency::cpu.data        27500                       # average UpgradeReq mshr miss latency
system.l2.UpgradeReq_avg_mshr_miss_latency::total        27500                       # average UpgradeReq mshr miss latency
system.l2.ReadExReq_avg_mshr_miss_latency::cpu.data 239712.726819                       # average ReadExReq mshr miss latency
system.l2.ReadExReq_avg_mshr_miss_latency::total 239712.726819                       # average ReadExReq mshr miss latency
system.l2.ReadCleanReq_avg_mshr_miss_latency::cpu.inst 158306.472919                       # average ReadCleanReq mshr miss latency
system.l2.ReadCleanReq_avg_mshr_miss_latency::total 158306.472919                       # average ReadCleanReq mshr miss latency
system.l2.ReadSharedReq_avg_mshr_miss_latency::cpu.data 201120.703739                       # average ReadSharedReq mshr miss latency
system.l2.ReadSharedReq_avg_mshr_miss_latency::total 201120.703739                       # average ReadSharedReq mshr miss latency
system.l2.demand_avg_mshr_miss_latency::cpu.inst 158306.472919                       # average overall mshr miss latency
system.l2.demand_avg_mshr_miss_latency::cpu.data 208886.369625                       # average overall mshr miss latency
system.l2.demand_avg_mshr_miss_latency::total 208647.289121                       # average overall mshr miss latency
system.l2.overall_avg_mshr_miss_latency::cpu.inst 158306.472919                       # average overall mshr miss latency
system.l2.overall_avg_mshr_miss_latency::cpu.data 208886.369625                       # average overall mshr miss latency
system.l2.overall_avg_mshr_miss_latency::total 208647.289121                       # average overall mshr miss latency
system.l2.replacements                         190324                       # number of replacements
system.l3.tags.pwrStateResidencyTicks::UNDEFINED 518358564000                       # Cumulative time (in ticks) in various power states
system.l3.tags.tagsinuse                 15868.758369                       # Cycle average of tags in use
system.l3.tags.total_refs                      325506                       # Total number of references to valid blocks.
system.l3.tags.sampled_refs                    116196                       # Sample count of references to valid blocks.
system.l3.tags.avg_refs                      2.801353                       # Average number of references to valid blocks.
system.l3.tags.warmup_cycle                    418000                       # Cycle when the warmup percentage was hit.
system.l3.tags.occ_blocks::writebacks     2110.523864                       # Average occupied blocks per requestor
system.l3.tags.occ_blocks::cpu.inst         36.869924                       # Average occupied blocks per requestor
system.l3.tags.occ_blocks::cpu.data      13721.364581                       # Average occupied blocks per requestor
system.l3.tags.occ_percent::writebacks       0.128816                       # Average percentage of cache occupancy
system.l3.tags.occ_percent::cpu.inst         0.002250                       # Average percentage of cache occupancy
system.l3.tags.occ_percent::cpu.data         0.837486                       # Average percentage of cache occupancy
system.l3.tags.occ_percent::total            0.968552                       # Average percentage of cache occupancy
system.l3.tags.occ_task_id_blocks::1024         16384                       # Occupied blocks per task id
system.l3.tags.age_task_id_blocks_1024::0           27                       # Occupied blocks per task id
system.l3.tags.age_task_id_blocks_1024::1           89                       # Occupied blocks per task id
system.l3.tags.age_task_id_blocks_1024::4        16268                       # Occupied blocks per task id
system.l3.tags.occ_task_id_percent::1024            1                       # Percentage of cache occupancy per task id
system.l3.tags.tag_accesses                    767622                       # Number of tag accesses
system.l3.tags.data_accesses                   767622                       # Number of data accesses
system.l3.pwrStateResidencyTicks::UNDEFINED 518358564000                       # Cumulative time (in ticks) in various power states
system.l3.WritebackDirty_hits::writebacks       158857                       # number of WritebackDirty hits
system.l3.WritebackDirty_hits::total           158857                       # number of WritebackDirty hits
system.l3.UpgradeReq_hits::cpu.data              4748                       # number of UpgradeReq hits
system.l3.UpgradeReq_hits::total                 4748                       # number of UpgradeReq hits
system.l3.ReadExReq_hits::cpu.data                508                       # number of ReadExReq hits
system.l3.ReadExReq_hits::total                   508                       # number of ReadExReq hits
system.l3.ReadSharedReq_hits::cpu.inst              1                       # number of ReadSharedReq hits
system.l3.ReadSharedReq_hits::cpu.data          70486                       # number of ReadSharedReq hits
system.l3.ReadSharedReq_hits::total             70487                       # number of ReadSharedReq hits
system.l3.demand_hits::cpu.inst                     1                       # number of demand (read+write) hits
system.l3.demand_hits::cpu.data                 70994                       # number of demand (read+write) hits
system.l3.demand_hits::total                    70995                       # number of demand (read+write) hits
system.l3.overall_hits::cpu.inst                    1                       # number of overall hits
system.l3.overall_hits::cpu.data                70994                       # number of overall hits
system.l3.overall_hits::total                   70995                       # number of overall hits
system.l3.ReadExReq_misses::cpu.data            31566                       # number of ReadExReq misses
system.l3.ReadExReq_misses::total               31566                       # number of ReadExReq misses
system.l3.ReadSharedReq_misses::cpu.inst          756                       # number of ReadSharedReq misses
system.l3.ReadSharedReq_misses::cpu.data        56834                       # number of ReadSharedReq misses
system.l3.ReadSharedReq_misses::total           57590                       # number of ReadSharedReq misses
system.l3.demand_misses::cpu.inst                 756                       # number of demand (read+write) misses
system.l3.demand_misses::cpu.data               88400                       # number of demand (read+write) misses
system.l3.demand_misses::total                  89156                       # number of demand (read+write) misses
system.l3.overall_misses::cpu.inst                756                       # number of overall misses
system.l3.overall_misses::cpu.data              88400                       # number of overall misses
system.l3.overall_misses::total                 89156                       # number of overall misses
system.l3.ReadExReq_miss_latency::cpu.data   7327350000                       # number of ReadExReq miss cycles
system.l3.ReadExReq_miss_latency::total    7327350000                       # number of ReadExReq miss cycles
system.l3.ReadSharedReq_miss_latency::cpu.inst    111494500                       # number of ReadSharedReq miss cycles
system.l3.ReadSharedReq_miss_latency::cpu.data  23043149000                       # number of ReadSharedReq miss cycles
system.l3.ReadSharedReq_miss_latency::total  23154643500                       # number of ReadSharedReq miss cycles
system.l3.demand_miss_latency::cpu.inst     111494500                       # number of demand (read+write) miss cycles
system.l3.demand_miss_latency::cpu.data   30370499000                       # number of demand (read+write) miss cycles
system.l3.demand_miss_latency::total      30481993500                       # number of demand (read+write) miss cycles
system.l3.overall_miss_latency::cpu.inst    111494500                       # number of overall miss cycles
system.l3.overall_miss_latency::cpu.data  30370499000                       # number of overall miss cycles
system.l3.overall_miss_latency::total     30481993500                       # number of overall miss cycles
system.l3.WritebackDirty_accesses::writebacks       158857                       # number of WritebackDirty accesses(hits+misses)
system.l3.WritebackDirty_accesses::total       158857                       # number of WritebackDirty accesses(hits+misses)
system.l3.UpgradeReq_accesses::cpu.data          4748                       # number of UpgradeReq accesses(hits+misses)
system.l3.UpgradeReq_accesses::total             4748                       # number of UpgradeReq accesses(hits+misses)
system.l3.ReadExReq_accesses::cpu.data          32074                       # number of ReadExReq accesses(hits+misses)
system.l3.ReadExReq_accesses::total             32074                       # number of ReadExReq accesses(hits+misses)
system.l3.ReadSharedReq_accesses::cpu.inst          757                       # number of ReadSharedReq accesses(hits+misses)
system.l3.ReadSharedReq_accesses::cpu.data       127320                       # number of ReadSharedReq accesses(hits+misses)
system.l3.ReadSharedReq_accesses::total        128077                       # number of ReadSharedReq accesses(hits+misses)
system.l3.demand_accesses::cpu.inst               757                       # number of demand (read+write) accesses
system.l3.demand_accesses::cpu.data            159394                       # number of demand (read+write) accesses
system.l3.demand_accesses::total               160151                       # number of demand (read+write) accesses
system.l3.overall_accesses::cpu.inst              757                       # number of overall (read+write) accesses
system.l3.overall_accesses::cpu.data           159394                       # number of overall (read+write) accesses
system.l3.overall_accesses::total              160151                       # number of overall (read+write) accesses
system.l3.ReadExReq_miss_rate::cpu.data      0.984162                       # miss rate for ReadExReq accesses
system.l3.ReadExReq_miss_rate::total         0.984162                       # miss rate for ReadExReq accesses
system.l3.ReadSharedReq_miss_rate::cpu.inst     0.998679                       # miss rate for ReadSharedReq accesses
system.l3.ReadSharedReq_miss_rate::cpu.data     0.446387                       # miss rate for ReadSharedReq accesses
system.l3.ReadSharedReq_miss_rate::total     0.449651                       # miss rate for ReadSharedReq accesses
system.l3.demand_miss_rate::cpu.inst         0.998679                       # miss rate for demand accesses
system.l3.demand_miss_rate::cpu.data         0.554601                       # miss rate for demand accesses
system.l3.demand_miss_rate::total            0.556700                       # miss rate for demand accesses
system.l3.overall_miss_rate::cpu.inst        0.998679                       # miss rate for overall accesses
system.l3.overall_miss_rate::cpu.data        0.554601                       # miss rate for overall accesses
system.l3.overall_miss_rate::total           0.556700                       # miss rate for overall accesses
system.l3.ReadExReq_avg_miss_latency::cpu.data 232127.922448                       # average ReadExReq miss latency
system.l3.ReadExReq_avg_miss_latency::total 232127.922448                       # average ReadExReq miss latency
system.l3.ReadSharedReq_avg_miss_latency::cpu.inst 147479.497354                       # average ReadSharedReq miss latency
system.l3.ReadSharedReq_avg_miss_latency::cpu.data 405446.546082                       # average ReadSharedReq miss latency
system.l3.ReadSharedReq_avg_miss_latency::total 402060.140649                       # average ReadSharedReq miss latency
system.l3.demand_avg_miss_latency::cpu.inst 147479.497354                       # average overall miss latency
system.l3.demand_avg_miss_latency::cpu.data 343557.680995                       # average overall miss latency
system.l3.demand_avg_miss_latency::total 341895.032303                       # average overall miss latency
system.l3.overall_avg_miss_latency::cpu.inst 147479.497354                       # average overall miss latency
system.l3.overall_avg_miss_latency::cpu.data 343557.680995                       # average overall miss latency
system.l3.overall_avg_miss_latency::total 341895.032303                       # average overall miss latency
system.l3.blocked_cycles::no_mshrs                  0                       # number of cycles access was blocked
system.l3.blocked_cycles::no_targets                0                       # number of cycles access was blocked
system.l3.blocked::no_mshrs                         0                       # number of cycles access was blocked
system.l3.blocked::no_targets                       0                       # number of cycles access was blocked
system.l3.avg_blocked_cycles::no_mshrs            nan                       # average number of cycles each access was blocked
system.l3.avg_blocked_cycles::no_targets          nan                       # average number of cycles each access was blocked
system.l3.writebacks::writebacks                71497                       # number of writebacks
system.l3.writebacks::total                     71497                       # number of writebacks
system.l3.CleanEvict_mshr_misses::writebacks          207                       # number of CleanEvict MSHR misses
system.l3.CleanEvict_mshr_misses::total           207                       # number of CleanEvict MSHR misses
system.l3.ReadExReq_mshr_misses::cpu.data        31566                       # number of ReadExReq MSHR misses
system.l3.ReadExReq_mshr_misses::total          31566                       # number of ReadExReq MSHR misses
system.l3.ReadSharedReq_mshr_misses::cpu.inst          756                       # number of ReadSharedReq MSHR misses
system.l3.ReadSharedReq_mshr_misses::cpu.data        56834                       # number of ReadSharedReq MSHR misses
system.l3.ReadSharedReq_mshr_misses::total        57590                       # number of ReadSharedReq MSHR misses
system.l3.demand_mshr_misses::cpu.inst            756                       # number of demand (read+write) MSHR misses
system.l3.demand_mshr_misses::cpu.data          88400                       # number of demand (read+write) MSHR misses
system.l3.demand_mshr_misses::total             89156                       # number of demand (read+write) MSHR misses
system.l3.overall_mshr_misses::cpu.inst           756                       # number of overall MSHR misses
system.l3.overall_mshr_misses::cpu.data         88400                       # number of overall MSHR misses
system.l3.overall_mshr_misses::total            89156                       # number of overall MSHR misses
system.l3.ReadExReq_mshr_miss_latency::cpu.data   6822294000                       # number of ReadExReq MSHR miss cycles
system.l3.ReadExReq_mshr_miss_latency::total   6822294000                       # number of ReadExReq MSHR miss cycles
system.l3.ReadSharedReq_mshr_miss_latency::cpu.inst     99398500                       # number of ReadSharedReq MSHR miss cycles
system.l3.ReadSharedReq_mshr_miss_latency::cpu.data  22133805000                       # number of ReadSharedReq MSHR miss cycles
system.l3.ReadSharedReq_mshr_miss_latency::total  22233203500                       # number of ReadSharedReq MSHR miss cycles
system.l3.demand_mshr_miss_latency::cpu.inst     99398500                       # number of demand (read+write) MSHR miss cycles
system.l3.demand_mshr_miss_latency::cpu.data  28956099000                       # number of demand (read+write) MSHR miss cycles
system.l3.demand_mshr_miss_latency::total  29055497500                       # number of demand (read+write) MSHR miss cycles
system.l3.overall_mshr_miss_latency::cpu.inst     99398500                       # number of overall MSHR miss cycles
system.l3.overall_mshr_miss_latency::cpu.data  28956099000                       # number of overall MSHR miss cycles
system.l3.overall_mshr_miss_latency::total  29055497500                       # number of overall MSHR miss cycles
system.l3.CleanEvict_mshr_miss_rate::writebacks          inf                       # mshr miss rate for CleanEvict accesses
system.l3.CleanEvict_mshr_miss_rate::total          inf                       # mshr miss rate for CleanEvict accesses
system.l3.ReadExReq_mshr_miss_rate::cpu.data     0.984162                       # mshr miss rate for ReadExReq accesses
system.l3.ReadExReq_mshr_miss_rate::total     0.984162                       # mshr miss rate for ReadExReq accesses
system.l3.ReadSharedReq_mshr_miss_rate::cpu.inst     0.998679                       # mshr miss rate for ReadSharedReq accesses
system.l3.ReadSharedReq_mshr_miss_rate::cpu.data     0.446387                       # mshr miss rate for ReadSharedReq accesses
system.l3.ReadSharedReq_mshr_miss_rate::total     0.449651                       # mshr miss rate for ReadSharedReq accesses
system.l3.demand_mshr_miss_rate::cpu.inst     0.998679                       # mshr miss rate for demand accesses
system.l3.demand_mshr_miss_rate::cpu.data     0.554601                       # mshr miss rate for demand accesses
system.l3.demand_mshr_miss_rate::total       0.556700                       # mshr miss rate for demand accesses
system.l3.overall_mshr_miss_rate::cpu.inst     0.998679                       # mshr miss rate for overall accesses
system.l3.overall_mshr_miss_rate::cpu.data     0.554601                       # mshr miss rate for overall accesses
system.l3.overall_mshr_miss_rate::total      0.556700                       # mshr miss rate for overall accesses
system.l3.ReadExReq_avg_mshr_miss_latency::cpu.data 216127.922448                       # average ReadExReq mshr miss latency
system.l3.ReadExReq_avg_mshr_miss_latency::total 216127.922448                       # average ReadExReq mshr miss latency
system.l3.ReadSharedReq_avg_mshr_miss_latency::cpu.inst 131479.497354                       # average ReadSharedReq mshr miss latency
system.l3.ReadSharedReq_avg_mshr_miss_latency::cpu.data 389446.546082                       # average ReadSharedReq mshr miss latency
system.l3.ReadSharedReq_avg_mshr_miss_latency::total 386060.140649                       # average ReadSharedReq mshr miss latency
system.l3.demand_avg_mshr_miss_latency::cpu.inst 131479.497354                       # average overall mshr miss latency
system.l3.demand_avg_mshr_miss_latency::cpu.data 327557.680995                       # average overall mshr miss latency
system.l3.demand_avg_mshr_miss_latency::total 325895.032303                       # average overall mshr miss latency
system.l3.overall_avg_mshr_miss_latency::cpu.inst 131479.497354                       # average overall mshr miss latency
system.l3.overall_avg_mshr_miss_latency::cpu.data 327557.680995                       # average overall mshr miss latency
system.l3.overall_avg_mshr_miss_latency::total 325895.032303                       # average overall mshr miss latency
system.l3.replacements                          99812                       # number of replacements
system.membus.snoop_filter.tot_requests        171879                       # Total number of requests made to the snoop filter.
system.membus.snoop_filter.hit_single_requests        82723                       # Number of requests hitting in the snoop filter with a single holder of the requested data.
system.membus.snoop_filter.hit_multi_requests            0                       # Number of requests hitting in the snoop filter with multiple (>1) holders of the requested data.
system.membus.snoop_filter.tot_snoops               0                       # Total number of snoops made to the snoop filter.
system.membus.snoop_filter.hit_single_snoops            0                       # Number of snoops hitting in the snoop filter with a single holder of the requested data.
system.membus.snoop_filter.hit_multi_snoops            0                       # Number of snoops hitting in the snoop filter with multiple (>1) holders of the requested data.
system.membus.pwrStateResidencyTicks::UNDEFINED 518358564000                       # Cumulative time (in ticks) in various power states
system.membus.trans_dist::ReadResp              57590                       # Transaction distribution
system.membus.trans_dist::WritebackDirty        71497                       # Transaction distribution
system.membus.trans_dist::CleanEvict              827                       # Transaction distribution
system.membus.trans_dist::ReadExReq             31566                       # Transaction distribution
system.membus.trans_dist::ReadExResp            31566                       # Transaction distribution
system.membus.trans_dist::ReadSharedReq         57590                       # Transaction distribution
system.membus.pkt_count_system.l3.mem_side::system.mem_ctrls.port       250636                       # Packet count per connected master and slave (bytes)
system.membus.pkt_count_system.l3.mem_side::total       250636                       # Packet count per connected master and slave (bytes)
system.membus.pkt_count::total                 250636                       # Packet count per connected master and slave (bytes)
system.membus.pkt_size_system.l3.mem_side::system.mem_ctrls.port     10281792                       # Cumulative packet size per connected master and slave (bytes)
system.membus.pkt_size_system.l3.mem_side::total     10281792                       # Cumulative packet size per connected master and slave (bytes)
system.membus.pkt_size::total                10281792                       # Cumulative packet size per connected master and slave (bytes)
system.membus.snoops                                0                       # Total snoops (count)
system.membus.snoopTraffic                          0                       # Total snoop traffic (bytes)
system.membus.snoop_fanout::samples             89156                       # Request fanout histogram
system.membus.snoop_fanout::mean                    0                       # Request fanout histogram
system.membus.snoop_fanout::stdev                   0                       # Request fanout histogram
system.membus.snoop_fanout::underflows              0      0.00%      0.00% # Request fanout histogram
system.membus.snoop_fanout::0                   89156    100.00%    100.00% # Request fanout histogram
system.membus.snoop_fanout::1                       0      0.00%    100.00% # Request fanout histogram
system.membus.snoop_fanout::overflows               0      0.00%    100.00% # Request fanout histogram
system.membus.snoop_fanout::min_value               0                       # Request fanout histogram
system.membus.snoop_fanout::max_value               0                       # Request fanout histogram
system.membus.snoop_fanout::total               89156                       # Request fanout histogram
system.membus.reqLayer2.occupancy           457877500                       # Layer occupancy (ticks)
system.membus.reqLayer2.utilization               0.1                       # Layer utilization (%)
system.membus.respLayer1.occupancy          445790500                       # Layer occupancy (ticks)
system.membus.respLayer1.utilization              0.1                       # Layer utilization (%)
system.tol2bus.snoop_filter.tot_requests       941126                       # Total number of requests made to the snoop filter.
system.tol2bus.snoop_filter.hit_single_requests       502601                       # Number of requests hitting in the snoop filter with a single holder of the requested data.
system.tol2bus.snoop_filter.hit_multi_requests            1                       # Number of requests hitting in the snoop filter with multiple (>1) holders of the requested data.
system.tol2bus.snoop_filter.tot_snoops          49996                       # Total number of snoops made to the snoop filter.
system.tol2bus.snoop_filter.hit_single_snoops        49996                       # Number of snoops hitting in the snoop filter with a single holder of the requested data.
system.tol2bus.snoop_filter.hit_multi_snoops            0                       # Number of snoops hitting in the snoop filter with multiple (>1) holders of the requested data.
system.tol2bus.pwrStateResidencyTicks::UNDEFINED 518358564000                       # Cumulative time (in ticks) in various power states
system.tol2bus.trans_dist::ReadResp            375703                       # Transaction distribution
system.tol2bus.trans_dist::WritebackDirty       588739                       # Transaction distribution
system.tol2bus.trans_dist::WritebackClean          428                       # Transaction distribution
system.tol2bus.trans_dist::CleanEvict           66441                       # Transaction distribution
system.tol2bus.trans_dist::UpgradeReq           65012                       # Transaction distribution
system.tol2bus.trans_dist::UpgradeResp          65012                       # Transaction distribution
system.tol2bus.trans_dist::ReadExReq            62822                       # Transaction distribution
system.tol2bus.trans_dist::ReadExResp           62822                       # Transaction distribution
system.tol2bus.trans_dist::ReadCleanReq           852                       # Transaction distribution
system.tol2bus.trans_dist::ReadSharedReq       374851                       # Transaction distribution
system.tol2bus.pkt_count_system.cpu.icache.mem_side::system.l2.cpu_side         2132                       # Packet count per connected master and slave (bytes)
system.tol2bus.pkt_count_system.cpu.dcache.mem_side::system.l2.cpu_side      1442531                       # Packet count per connected master and slave (bytes)
system.tol2bus.pkt_count::total               1444663                       # Packet count per connected master and slave (bytes)
system.tol2bus.pkt_size_system.cpu.icache.mem_side::system.l2.cpu_side        81920                       # Cumulative packet size per connected master and slave (bytes)
system.tol2bus.pkt_size_system.cpu.dcache.mem_side::system.l2.cpu_side     55523456                       # Cumulative packet size per connected master and slave (bytes)
system.tol2bus.pkt_size::total               55605376                       # Cumulative packet size per connected master and slave (bytes)
system.tol2bus.snoops                          218019                       # Total snoops (count)
system.tol2bus.snoopTraffic                  10166912                       # Total snoop traffic (bytes)
system.tol2bus.snoop_fanout::samples           721556                       # Request fanout histogram
system.tol2bus.snoop_fanout::mean            0.069291                       # Request fanout histogram
system.tol2bus.snoop_fanout::stdev           0.253948                       # Request fanout histogram
system.tol2bus.snoop_fanout::underflows             0      0.00%      0.00% # Request fanout histogram
system.tol2bus.snoop_fanout::0                 671559     93.07%     93.07% # Request fanout histogram
system.tol2bus.snoop_fanout::1                  49997      6.93%    100.00% # Request fanout histogram
system.tol2bus.snoop_fanout::2                      0      0.00%    100.00% # Request fanout histogram
system.tol2bus.snoop_fanout::3                      0      0.00%    100.00% # Request fanout histogram
system.tol2bus.snoop_fanout::4                      0      0.00%    100.00% # Request fanout histogram
system.tol2bus.snoop_fanout::overflows              0      0.00%    100.00% # Request fanout histogram
system.tol2bus.snoop_fanout::min_value              0                       # Request fanout histogram
system.tol2bus.snoop_fanout::max_value              1                       # Request fanout histogram
system.tol2bus.snoop_fanout::total             721556                       # Request fanout histogram
system.tol2bus.reqLayer0.occupancy          900872000                       # Layer occupancy (ticks)
system.tol2bus.reqLayer0.utilization              0.2                       # Layer utilization (%)
system.tol2bus.respLayer0.occupancy           1278000                       # Layer occupancy (ticks)
system.tol2bus.respLayer0.utilization             0.0                       # Layer utilization (%)
system.tol2bus.respLayer1.occupancy         689015500                       # Layer occupancy (ticks)
system.tol2bus.respLayer1.utilization             0.1                       # Layer utilization (%)
system.tol3bus.snoop_filter.tot_requests       325713                       # Total number of requests made to the snoop filter.
system.tol3bus.snoop_filter.hit_single_requests       165562                       # Number of requests hitting in the snoop filter with a single holder of the requested data.
system.tol3bus.snoop_filter.hit_multi_requests            0                       # Number of requests hitting in the snoop filter with multiple (>1) holders of the requested data.
system.tol3bus.snoop_filter.tot_snoops          27695                       # Total number of snoops made to the snoop filter.
system.tol3bus.snoop_filter.hit_single_snoops        27695                       # Number of snoops hitting in the snoop filter with a single holder of the requested data.
system.tol3bus.snoop_filter.hit_multi_snoops            0                       # Number of snoops hitting in the snoop filter with multiple (>1) holders of the requested data.
system.tol3bus.pwrStateResidencyTicks::UNDEFINED 518358564000                       # Cumulative time (in ticks) in various power states
system.tol3bus.trans_dist::ReadResp            128077                       # Transaction distribution
system.tol3bus.trans_dist::WritebackDirty       230354                       # Transaction distribution
system.tol3bus.trans_dist::CleanEvict           30272                       # Transaction distribution
system.tol3bus.trans_dist::UpgradeReq            4748                       # Transaction distribution
system.tol3bus.trans_dist::UpgradeResp           4748                       # Transaction distribution
system.tol3bus.trans_dist::ReadExReq            32074                       # Transaction distribution
system.tol3bus.trans_dist::ReadExResp           32074                       # Transaction distribution
system.tol3bus.trans_dist::ReadSharedReq       128077                       # Transaction distribution
system.tol3bus.pkt_count_system.l2.mem_side::system.l3.cpu_side       490612                       # Packet count per connected master and slave (bytes)
system.tol3bus.pkt_size_system.l2.mem_side::system.l3.cpu_side     20416512                       # Cumulative packet size per connected master and slave (bytes)
system.tol3bus.snoops                           99812                       # Total snoops (count)
system.tol3bus.snoopTraffic                   4575808                       # Total snoop traffic (bytes)
system.tol3bus.snoop_fanout::samples           264711                       # Request fanout histogram
system.tol3bus.snoop_fanout::mean            0.104624                       # Request fanout histogram
system.tol3bus.snoop_fanout::stdev           0.306068                       # Request fanout histogram
system.tol3bus.snoop_fanout::underflows             0      0.00%      0.00% # Request fanout histogram
system.tol3bus.snoop_fanout::0                 237016     89.54%     89.54% # Request fanout histogram
system.tol3bus.snoop_fanout::1                  27695     10.46%    100.00% # Request fanout histogram
system.tol3bus.snoop_fanout::overflows              0      0.00%    100.00% # Request fanout histogram
system.tol3bus.snoop_fanout::min_value              0                       # Request fanout histogram
system.tol3bus.snoop_fanout::max_value              1                       # Request fanout histogram
system.tol3bus.snoop_fanout::total             264711                       # Request fanout histogram
system.tol3bus.reqLayer0.occupancy          321713500                       # Layer occupancy (ticks)
system.tol3bus.reqLayer0.utilization              0.1                       # Layer utilization (%)
system.tol3bus.respLayer0.occupancy         242600500                       # Layer occupancy (ticks)
system.tol3bus.respLayer0.utilization             0.0                       # Layer utilization (%)

---------- End Simulation Statistics   ----------
